&nam_shapiro
ll_npol_fold = .FALSE.
ll_cycl = .FALSE.
l_pass_shallow_updates = .TRUE.
l_pass_fixed_pt_updates = .FALSE.
zmin_val = 8.0
/
